research/pmu_hybrid_dae_bayes/output/results/g1_voltage_operator.csv
pmu_id,bus,andes_re,andes_im,canonical_re,canonical_im,complex_error_pu,vm_error_pu,angle_error_deg
PMU6,2,1.0240865431576442,-0.22133528486859644,1.024086652705396,-0.22133512853438425,1.9089551020252824e-07,7.40495746942571e-08,-9.621817277661147e-06
PMU7,5,1.0392764527513494,-0.26087996161495447,1.039276643572659,-0.2608797692984069,2.70921440061811e-07,1.3825655664767567e-07,-1.2458239557290707e-05
PMU8,6,1.0434978249397375,-0.24983888715214775,1.0434979612314075,-0.24983872155463938,2.1447133625945825e-07,9.398726752429809e-08,-1.0294144579445177e-05
PMU3,10,1.0500290089309858,-0.21364159323509518,1.0500291000535962,-0.2136414671625657,1.5555581893220335e-07,6.415708986295954e-08,-7.577239645837465e-06
PMU5,19,1.0530784002771207,-0.15527217136508686,1.053078504201982,-0.15527200407639988,1.969413150179126e-07,7.8411075188356e-08,-9.72412769563409e-06
PMU4,22,1.0540214236883014,-0.1084061252030395,1.054021508067414,-0.10840599393445825,1.560489508514055e-07,7.050621464443907e-08,-7.527777702937727e-06
PMU2,29,1.0492759225781276,-0.15537154160351951,1.0492760420763179,-0.1553713566501658,2.201989112584282e-07,9.111772314440714e-08,-1.0828187767726023e-05
PMU1,39,1.0112129586510168,-0.1958273531944145,1.011212958649592,-0.19582735319443284,1.4249783388430118e-12,1.3953282973488967e-12,1.607134280543515e-11
